2015Citenel/2014MasterDissertation/redesCemigDissertacaoEzequielUfmg/SLAD203.m
function mpc = SLAD203

%% MATPOWER Case Format : Version 2
mpc.version = '2';

%%-----  Power Flow Data  -----%%
%% system MVA base
mpc.baseMVA = 100;

%% bus data
%	bus_i	type	Pd	Qd	Gs	Bs	area	Vm	Va	baseKV	zone	Vmax	Vmin
mpc.bus = [
	102916025	3	0	0	0	0	0	1	0	13.8	0	1.1	0.9;
	102916032	1	0	0	0	0	0	1	0	13.8	0	1.1	0.9;
	102916053	1	0	0	0	0	0	1	0	13.8	0	1.1	0.9;
	102916060	1	0	0	0	0	0	1	0	13.8	0	1.1	0.9;
	102916067	1	0	0	0	0	0	1	0	13.8	0	1.1	0.9;
	102916095	1	0	0	0	0	0	1	0	13.8	0	1.1	0.9;
	102916158	1	0	0	0	0	0	1	0	13.8	0	1.1	0.9;
	102916165	1	0	0	0	0	0	1	0	13.8	0	1.1	0.9;
	102916172	1	0	0	0	0	0	1	0	13.8	0	1.1	0.9;
	102916179	1	0	0	0	0	0	1	0	13.8	0	1.1	0.9;
	102916186	1	0	0	0	0	0	1	0	13.8	0	1.1	0.9;
	102916193	1	0	0	0	0	0	1	0	13.8	0	1.1	0.9;
	102916200	1	0	0	0	0	0	1	0	13.8	0	1.1	0.9;
	102916207	1	0	0	0	0	0	1	0	13.8	0	1.1	0.9;
	102916214	1	0.00083365541	0.00180757845	0	0	0	1	0	13.8	0	1.1	0.9;
	102916221	1	0	0	0	0	0	1	0	13.8	0	1.1	0.9;
	102916228	1	0	0	0	0	0	1	0	13.8	0	1.1	0.9;
	102916235	1	0	0	0	0	0	1	0	13.8	0	1.1	0.9;
	102916242	1	0	0	0	0	0	1	0	13.8	0	1.1	0.9;
	102916249	1	0.00159264224	0.00366401037	0	0	0	1	0	13.8	0	1.1	0.9;
	102916256	1	0	0	0	0	0	1	0	13.8	0	1.1	0.9;
	102916263	1	0	0	0	0	0	1	0	13.8	0	1.1	0.9;
	102916270	1	0.000826950933	0.00180757845	0	0	0	1	0	13.8	0	1.1	0.9;
	102916277	1	0	0	0	0	0	1	0	13.8	0	1.1	0.9;
	102916284	1	0	0	0	0	0	1	0	13.8	0	1.1	0.9;
	102916291	1	0	0	0	0	0	1	0	13.8	0	1.1	0.9;
	102916298	1	0	0	0	0	0	1	0	13.8	0	1.1	0.9;
	102916305	1	0	0	0	0	0	1	0	13.8	0	1.1	0.9;
	102916312	1	0	0	0	0	0	1	0	13.8	0	1.1	0.9;
	102916319	1	0	0	0	0	0	1	0	13.8	0	1.1	0.9;
	102916326	1	0	0	0	0	0	1	0	13.8	0	1.1	0.9;
	102916333	1	0	0	0	0	0	1	0	13.8	0	1.1	0.9;
	102916340	1	0	0	0	0	0	1	0	13.8	0	1.1	0.9;
	102916347	1	0	0	0	0	0	1	0	13.8	0	1.1	0.9;
	102916354	1	0	0	0	0	0	1	0	13.8	0	1.1	0.9;
	102916361	1	0	0	0	0	0	1	0	13.8	0	1.1	0.9;
	102916368	1	0	0	0	0	0	1	0	13.8	0	1.1	0.9;
	102916375	1	0	0	0	0	0	1	0	13.8	0	1.1	0.9;
	102916382	1	0	0	0	0	0	1	0	13.8	0	1.1	0.9;
	102916389	1	0	0	0	0	0	1	0	13.8	0	1.1	0.9;
	102916396	1	0	0	0	0	0	1	0	13.8	0	1.1	0.9;
	102916403	1	0	0	0	0	0	1	0	13.8	0	1.1	0.9;
	102916410	1	0	0	0	0	0	1	0	13.8	0	1.1	0.9;
	102916417	1	0	0	0	0	0	1	0	13.8	0	1.1	0.9;
	102916424	1	0	0	0	0	0	1	0	13.8	0	1.1	0.9;
	102916431	1	0	0	0	0	0	1	0	13.8	0	1.1	0.9;
	102916438	1	0	0	0	0	0	1	0	13.8	0	1.1	0.9;
	102916445	1	0	0	0	0	0	1	0	13.8	0	1.1	0.9;
	102916452	1	0.000939159376	0.00219840622	0	0	0	1	0	13.8	0	1.1	0.9;
	102916459	1	0	0	0	0	0	1	0	13.8	0	1.1	0.9;
	102916466	1	0.000104351042	0.000244267358	0	0	0	1	0	13.8	0	1.1	0.9;
	102916473	1	0.000208702084	0.000488534717	0	0	0	1	0	13.8	0	1.1	0.9;
	102916480	1	0	0	0	0	0	1	0	13.8	0	1.1	0.9;
	102916487	1	0	0	0	0	0	1	0	13.8	0	1.1	0.9;
	102916494	1	0	0	0	0	0	1	0	13.8	0	1.1	0.9;
	102916529	1	0	0	0	0	0	1	0	13.8	0	1.1	0.9;
	102916557	1	0	0	0	0	0	1	0	13.8	0	1.1	0.9;
	102916571	1	0	0	0	0	0	1	0	13.8	0	1.1	0.9;
	102916599	1	0	0	0	0	0	1	0	13.8	0	1.1	0.9;
	102916634	1	0	0	0	0	0	1	0	13.8	0	1.1	0.9;
	102916648	1	0	0	0	0	0	1	0	13.8	0	1.1	0.9;
	102916662	1	0	0	0	0	0	1	0	13.8	0	1.1	0.9;
	102916676	1	0	0	0	0	0	1	0	13.8	0	1.1	0.9;
	102916690	1	0	0	0	0	0	1	0	13.8	0	1.1	0.9;
	102916816	1	0	0	0	0	0	1	0	13.8	0	1.1	0.9;
	102916949	1	0	0	0	0	0	1	0	13.8	0	1.1	0.9;
	102916956	1	0.000582095496	0.00122133679	0	0	0	1	0	13.8	0	1.1	0.9;
	102916963	1	0.000521755209	0.00122133679	0	0	0	1	0	13.8	0	1.1	0.9;
	102916970	1	0	0	0	0	0	1	0	13.8	0	1.1	0.9;
	102916977	1	0.000939159376	0.00219840622	0	0	0	1	0	13.8	0	1.1	0.9;
	102916984	1	0	0	0	0	0	1	0	13.8	0	1.1	0.9;
	102916991	1	0.000208702084	0.000488534717	0	0	0	1	0	13.8	0	1.1	0.9;
	102916998	1	0	0	0	0	0	1	0	13.8	0	1.1	0.9;
	102917005	1	0.000626106251	0.00146560415	0	0	0	1	0	13.8	0	1.1	0.9;
	102917012	1	0.000313053125	0.000732802075	0	0	0	1	0	13.8	0	1.1	0.9;
	102917019	1	0	0	0	0	0	1	0	13.8	0	1.1	0.9;
	102917026	1	0	0	0	0	0	1	0	13.8	0	1.1	0.9;
	102917033	1	0.000626106251	0.00146560415	0	0	0	1	0	13.8	0	1.1	0.9;
	102917040	1	0.000313053125	0.000732802075	0	0	0	1	0	13.8	0	1.1	0.9;
	102917047	1	0	0	0	0	0	1	0	13.8	0	1.1	0.9;
	102917054	1	0	0	0	0	0	1	0	13.8	0	1.1	0.9;
	102917075	1	0	0	0	0	0	1	0	13.8	0	1.1	0.9;
	102917082	1	0.000208702084	0.000488534717	0	0	0	1	0	13.8	0	1.1	0.9;
	102917089	1	0	0	0	0	0	1	0	13.8	0	1.1	0.9;
	102917096	1	0.0536957969	0.0158920311	0	0	0	1	0	13.8	0	1.1	0.9;
	102917103	1	0	0	0	0	0	1	0	13.8	0	1.1	0.9;
	102917110	1	0	0	0	0	0	1	0	13.8	0	1.1	0.9;
	102917117	1	0	0	0	0	0	1	0	13.8	0	1.1	0.9;
	102917124	1	0	0	0	0	0	1	0	13.8	0	1.1	0.9;
	102917131	1	0	0	0	0	0	1	0	13.8	0	1.1	0.9;
	102917138	1	0	0	0	0	0	1	0	13.8	0	1.1	0.9;
	102917145	1	0	0	0	0	0	1	0	13.8	0	1.1	0.9;
	102917152	1	0	0	0	0	0	1	0	13.8	0	1.1	0.9;
	102917180	1	0	0	0	0	0	1	0	13.8	0	1.1	0.9;
	102917208	1	0	0	0	0	0	1	0	13.8	0	1.1	0.9;
	102917215	1	0	0	0	0	0	1	0	13.8	0	1.1	0.9;
	102917222	1	0	0	0	0	0	1	0	13.8	0	1.1	0.9;
	102917229	1	0.00313053125	0.00732802075	0	0	0	1	0	13.8	0	1.1	0.9;
	102917243	1	0	0	0	0	0	1	0	13.8	0	1.1	0.9;
	102917250	1	0	0	0	0	0	1	0	13.8	0	1.1	0.9;
	102917264	1	0	0	0	0	0	1	0	13.8	0	1.1	0.9;
	102917271	1	0	0	0	0	0	1	0	13.8	0	1.1	0.9;
	102917278	1	0	0	0	0	0	1	0	13.8	0	1.1	0.9;
	102917285	1	0	0	0	0	0	1	0	13.8	0	1.1	0.9;
	102917292	1	0	0	0	0	0	1	0	13.8	0	1.1	0.9;
	102917299	1	0	0	0	0	0	1	0	13.8	0	1.1	0.9;
	102917306	1	0.000104351042	0.000244267358	0	0	0	1	0	13.8	0	1.1	0.9;
	102917313	1	0	0	0	0	0	1	0	13.8	0	1.1	0.9;
	102917320	1	0	0	0	0	0	1	0	13.8	0	1.1	0.9;
	102917327	1	0	0	0	0	0	1	0	13.8	0	1.1	0.9;
	102917334	1	0	0	0	0	0	1	0	13.8	0	1.1	0.9;
	102917341	1	0	0	0	0	0	1	0	13.8	0	1.1	0.9;
	102917348	1	0	0	0	0	0	1	0	13.8	0	1.1	0.9;
	102917362	1	0	0	0	0	0	1	0	13.8	0	1.1	0.9;
	102917369	1	0	0	0	0	0	1	0	13.8	0	1.1	0.9;
	102917418	1	0	0	0	0	0	1	0	13.8	0	1.1	0.9;
	102917432	1	0	0	0	0	0	1	0	13.8	0	1.1	0.9;
	102917439	1	0	0	0	0	0	1	0	13.8	0	1.1	0.9;
	102917453	1	0	0	0	0	0	1	0	13.8	0	1.1	0.9;
	102917495	1	0	0	0	0	0	1	0	13.8	0	1.1	0.9;
	102917502	1	0	0	0	0	0	1	0	13.8	0	1.1	0.9;
	102917509	1	0	0	0	0	0	1	0	13.8	0	1.1	0.9;
	102917516	1	0.000109938105	0.000244267358	0	0	0	1	0	13.8	0	1.1	0.9;
	102917523	1	0	0	0	0	0	1	0	13.8	0	1.1	0.9;
	102917530	1	0	0	0	0	0	1	0	13.8	0	1.1	0.9;
	102917537	1	0	0	0	0	0	1	0	13.8	0	1.1	0.9;
	102917544	1	0	0	0	0	0	1	0	13.8	0	1.1	0.9;
	102917551	1	0	0	0	0	0	1	0	13.8	0	1.1	0.9;
	102917558	1	0.000320875015	0.000732802075	0	0	0	1	0	13.8	0	1.1	0.9;
	102917579	1	0	0	0	0	0	1	0	13.8	0	1.1	0.9;
	102917607	1	0	0	0	0	0	1	0	13.8	0	1.1	0.9;
	102917628	1	0	0	0	0	0	1	0	13.8	0	1.1	0.9;
	102917635	1	0	0	0	0	0	1	0	13.8	0	1.1	0.9;
	102917747	1	0	0	0	0	0	1	0	13.8	0	1.1	0.9;
	102917768	1	0	0	0	0	0	1	0	13.8	0	1.1	0.9;
	102917775	1	0	0	0	0	0	1	0	13.8	0	1.1	0.9;
	102917782	1	0	0	0	0	0	1	0	13.8	0	1.1	0.9;
	102917803	1	0	0	0	0	0	1	0	13.8	0	1.1	0.9;
	102917852	1	0	0	0	0	0	1	0	13.8	0	1.1	0.9;
	102917873	1	0	0	0	0	0	1	0	13.8	0	1.1	0.9;
	102917880	1	0	0	0	0	0	1	0	13.8	0	1.1	0.9;
	102917887	1	0.000104351042	0.000244267358	0	0	0	1	0	13.8	0	1.1	0.9;
	102917894	1	0	0	0	0	0	1	0	13.8	0	1.1	0.9;
	102917901	1	0.000352162571	0.000732802075	0	0	0	1	0	13.8	0	1.1	0.9;
	102917908	1	0.000346575507	0.000732802075	0	0	0	1	0	13.8	0	1.1	0.9;
	102917915	1	0	0	0	0	0	1	0	13.8	0	1.1	0.9;
	102917922	1	0.000340988444	0.000732802075	0	0	0	1	0	13.8	0	1.1	0.9;
	102917929	1	0	0	0	0	0	1	0	13.8	0	1.1	0.9;
	102917936	1	0.000104351042	0.000244267358	0	0	0	1	0	13.8	0	1.1	0.9;
	102917943	1	0	0	0	0	0	1	0	13.8	0	1.1	0.9;
	102917950	1	0	0	0	0	0	1	0	13.8	0	1.1	0.9;
	102917957	1	0.000313053125	0.000732802075	0	0	0	1	0	13.8	0	1.1	0.9;
	102917964	1	0.000208702084	0.000488534717	0	0	0	1	0	13.8	0	1.1	0.9;
	102917971	1	0.000313053125	0.000732802075	0	0	0	1	0	13.8	0	1.1	0.9;
	102917978	1	0.000104351042	0.000244267358	0	0	0	1	0	13.8	0	1.1	0.9;
	102918020	1	0	0	0	0	0	1	0	13.8	0	1.1	0.9;
	102918027	1	0.000383450127	0.000732802075	0	0	0	1	0	13.8	0	1.1	0.9;
	102918034	1	0.00063684872	0.00122133679	0	0	0	1	0	13.8	0	1.1	0.9;
	102918041	1	0	0	0	0	0	1	0	13.8	0	1.1	0.9;
	102918048	1	0	0	0	0	0	1	0	13.8	0	1.1	0.9;
	102918055	1	0.000705163201	0.00146560415	0	0	0	1	0	13.8	0	1.1	0.9;
	102918062	1	0.000788131097	0.00146560415	0	0	0	1	0	13.8	0	1.1	0.9;
	102918069	1	0	0	0	0	0	1	0	13.8	0	1.1	0.9;
	102918076	1	0.000708236086	0.00146560415	0	0	0	1	0	13.8	0	1.1	0.9;
	102918083	1	0.000363336698	0.000732802075	0	0	0	1	0	13.8	0	1.1	0.9;
	102918090	1	0.000642867442	0.00146560415	0	0	0	1	0	13.8	0	1.1	0.9;
	102918097	1	0.000208702084	0.000488534717	0	0	0	1	0	13.8	0	1.1	0.9;
	102918104	1	0.000374510826	0.000732802075	0	0	0	1	0	13.8	0	1.1	0.9;
	102918111	1	0	0	0	0	0	1	0	13.8	0	1.1	0.9;
	102918118	1	0.00156526563	0.00366401037	0	0	0	1	0	13.8	0	1.1	0.9;
	102918125	1	0	0	0	0	0	1	0	13.8	0	1.1	0.9;
	102918132	1	0.000684211713	0.00146560415	0	0	0	1	0	13.8	0	1.1	0.9;
	102918139	1	0	0	0	0	0	1	0	13.8	0	1.1	0.9;
	102918146	1	0	0	0	0	0	1	0	13.8	0	1.1	0.9;
	102918153	1	0	0	0	0	0	1	0	13.8	0	1.1	0.9;
	102918160	1	0.000336798146	0.000732802075	0	0	0	1	0	13.8	0	1.1	0.9;
	102918167	1	0	0	0	0	0	1	0	13.8	0	1.1	0.9;
	102918174	1	0.000828627052	0.00180757845	0	0	0	1	0	13.8	0	1.1	0.9;
	102918181	1	0.000363336698	0.000732802075	0	0	0	1	0	13.8	0	1.1	0.9;
	102918188	1	0	0	0	0	0	1	0	13.8	0	1.1	0.9;
	102918195	1	0.000578184552	0.00122133679	0	0	0	1	0	13.8	0	1.1	0.9;
	102918202	1	0	0	0	0	0	1	0	13.8	0	1.1	0.9;
	102918209	1	0.000406915795	0.000732802075	0	0	0	1	0	13.8	0	1.1	0.9;
	102918216	1	0	0	0	0	0	1	0	13.8	0	1.1	0.9;
	102918223	1	0	0	0	0	0	1	0	13.8	0	1.1	0.9;
	102918230	1	0	0	0	0	0	1	0	13.8	0	1.1	0.9;
	102918237	1	0	0	0	0	0	1	0	13.8	0	1.1	0.9;
	102918244	1	0.000580419377	0.00122133679	0	0	0	1	0	13.8	0	1.1	0.9;
	102918251	1	0.000646905435	0.00122133679	0	0	0	1	0	13.8	0	1.1	0.9;
	102918258	1	0.000416972509	0.000732802075	0	0	0	1	0	13.8	0	1.1	0.9;
	102918265	1	0	0	0	0	0	1	0	13.8	0	1.1	0.9;
	102918272	1	0.000799574321	0.00180757845	0	0	0	1	0	13.8	0	1.1	0.9;
	102918307	1	0	0	0	0	0	1	0	13.8	0	1.1	0.9;
	102918335	1	0	0	0	0	0	1	0	13.8	0	1.1	0.9;
	102918405	1	0	0	0	0	0	1	0	13.8	0	1.1	0.9;
	102918412	1	0	0	0	0	0	1	0	13.8	0	1.1	0.9;
	102918419	1	0.000939159376	0.00219840622	0	0	0	1	0	13.8	0	1.1	0.9;
	102918461	1	0	0	0	0	0	1	0	13.8	0	1.1	0.9;
	102918489	1	0	0	0	0	0	1	0	13.8	0	1.1	0.9;
	102918580	1	0	0	0	0	0	1	0	13.8	0	1.1	0.9;
...
];

%% generator data
%	bus	Pg	Qg	Qmax	Qmin	Vg	mBase	status	Pmax	Pmin	Pc1	Pc2	Qc1min	Qc1max	Qc2min	Qc2max	ramp_agc	ramp_10	ramp_30	ramp_q	apf
mpc.gen = [
	102916025	5	0	2.5	-2.5	1	100	1	10	5	0	0	0	0	0	0	0	0	0	0	0;
];

%% branch data
%	fbus	tbus	r	x	b	rateA	rateB	rateC	ratio	angle	status	angmin	angmax
mpc.branch = [
	102916193	102916207	0.0149539878	0.0065771014	-2.62549884e-07	0.0012282	0.0018492	0.0020562	1	0	1	-360	360;
	102916193	102916200	0.00809456931	0.0102326135	-2.62549884e-07	0.0025944	0.0038916	0.0043332	1	0	1	-360	360;
	102916263	102916270	0.0193989229	0.0245228219	-2.62549884e-07	0.0025944	0.0038916	0.0043332	1	0	1	-360	360;
	102916284	102916291	0.0115882118	0.0146490429	-2.62549884e-07	0.0025944	0.0038916	0.0043332	1	0	1	-360	360;
	102916326	102916333	0.357830155	0.452344967	-2.62549884e-07	0.0025944	0.0038916	0.0043332	1	0	1	-360	360;
	102916368	2809717	2.62549884e-05	2.62549884e-05	-2.62549884e-07	6	8	10	1	0	1	-360	360;
	102916452	102916459	0.100113948	0.0304792846	-2.62549884e-07	0.0009246	0.00138	0.0015456	1	0	1	-360	360;
	102916459	102916466	0.0365293974	0.0111212266	-2.62549884e-07	0.0009246	0.00138	0.0015456	1	0	1	-360	360;
	102916480	102916487	0.00817873699	0.0103390127	-2.62549884e-07	0.0025944	0.0038916	0.0043332	1	0	1	-360	360;
	102917019	102917026	1.52683406	0.464838424	-2.62549884e-07	0.0009246	0.00138	0.0015456	1	0	1	-360	360;
	102917124	102917131	0.0121816148	0.0128772842	-2.62549884e-07	0.0037812	0.005658	0.0062928	1	0	1	-360	360;
	102917131	102917138	2.62549884e-05	2.62549884e-05	-2.62549884e-07	6	8	10	1	0	1	-360	360;
	102917320	102917327	2.62549884e-05	2.62549884e-05	-2.62549884e-07	6	8	10	1	0	1	-360	360;
	102917509	102917516	0.0710766604	0.0544228521	-2.62549884e-07	0.0016698	0.0025116	0.0028014	1	0	1	-360	360;
	102917936	102917943	0.125973199	0.0554058564	-2.62549884e-07	0.0012282	0.0018492	0.0020562	1	0	1	-360	360;
	102917943	102917950	0.0709470843	0.0312041292	-2.62549884e-07	0.0012282	0.0018492	0.0020562	1	0	1	-360	360;
	102918020	102918027	0.09720432	0.108723134	-2.62549884e-07	0.0006624	0.0013662	0.0015318	1	0	1	-360	360;
	102918062	102918069	0.148860733	0.166500886	-2.62549884e-07	0.0006624	0.0013662	0.0015318	1	0	1	-360	360;
	102918111	102918118	0.0437078028	0.0488872236	-2.62549884e-07	0.0006624	0.0013662	0.0015318	1	0	1	-360	360;
	102918118	102918125	0.0945629197	0.105768725	-2.62549884e-07	0.0006624	0.0013662	0.0015318	1	0	1	-360	360;
	102918202	102918209	0.0758339389	0.0333534781	-2.62549884e-07	0.0012282	0.0018492	0.0020562	1	0	1	-360	360;
	102918258	102918265	0.0387514548	0.0170437646	-2.62549884e-07	0.0012282	0.0018492	0.0020562	1	0	1	-360	360;
	102918405	102918412	0.766835814	0.233460047	-2.62549884e-07	0.0009246	0.00138	0.0015456	1	0	1	-360	360;
	102918608	102918615	0.127108538	0.0386976778	-2.62549884e-07	0.0009246	0.00138	0.0015456	1	0	1	-360	360;
	102918706	102918741	0.305936585	0.0931411496	-2.62549884e-07	0.0009246	0.00138	0.0015456	1	0	1	-360	360;
	102918748	102918769	0.0443230093	0.01349396	-2.62549884e-07	0.0009246	0.00138	0.0015456	1	0	1	-360	360;
	102918888	102918902	0.151174442	0.0460244444	-2.62549884e-07	0.0009246	0.00138	0.0015456	1	0	1	-360	360;
	102918965	102918972	0.0862081746	0.0262457283	-2.62549884e-07	0.0009246	0.00138	0.0015456	1	0	1	-360	360;
	102919014	102919028	0.643374679	0.195872806	-2.62549884e-07	0.0009246	0.00138	0.0015456	1	0	1	-360	360;
	102919042	102919056	0.25194545	0.0767037681	-2.62549884e-07	0.0009246	0.00138	0.0015456	1	0	1	-360	360;
	102919084	102919091	0.0954008783	0.0290444096	-2.62549884e-07	0.0009246	0.00138	0.0015456	1	0	1	-360	360;
	102918958	102919035	2.62549884e-05	2.62549884e-05	-2.62549884e-07	6	8	10	1	0	1	-360	360;
	102919196	102919210	0.808380228	0.246108075	-2.62549884e-07	0.0009246	0.00138	0.0015456	1	0	1	-360	360;
	102919252	102919259	0.194812142	0.0593097648	-2.62549884e-07	0.0009246	0.00138	0.0015456	1	0	1	-360	360;
	102919378	102919385	0.207823916	0.0632711465	-2.62549884e-07	0.0009246	0.00138	0.0015456	1	0	1	-360	360;
	102919385	102919399	0.230230566	0.0700927601	-2.62549884e-07	0.0009246	0.00138	0.0015456	1	0	1	-360	360;
	102919420	102919427	0.138877734	0.0422807616	-2.62549884e-07	0.0009246	0.00138	0.0015456	1	0	1	-360	360;
	102919476	102919490	0.206999907	0.0630202804	-2.62549884e-07	0.0009246	0.00138	0.0015456	1	0	1	-360	360;
	102916249	102916256	0.0363493325	0.0459503967	-2.62549884e-07	0.0025944	0.0038916	0.0043332	1	0	1	-360	360;
	102916319	102916326	0.0106400205	0.0134504028	-2.62549884e-07	0.0025944	0.0038916	0.0043332	1	0	1	-360	360;
	102916340	102916347	0.0212176483	0.026821933	-2.62549884e-07	0.0025944	0.0038916	0.0043332	1	0	1	-360	360;
	102916361	102916375	0.0171024995	0.0237502625	-2.62549884e-07	0.002622	0.0039468	0.0043884	1	0	1	-360	360;
	102916333	102916340	2.62549884e-05	2.62549884e-05	-2.62549884e-07	6	8	10	1	0	1	-360	360;
	102916389	102916396	2.62549884e-05	2.62549884e-05	-2.62549884e-07	6	8	10	1	0	1	-360	360;
	102916417	102916424	0.0541155034	0.02634743	-2.62549884e-07	0.001242	0.001863	0.0020838	1	0	1	-360	360;
	102917047	102917054	0.000542060491	0.000263915144	-2.62549884e-07	0.001242	0.001863	0.0020838	1	0	1	-360	360;
	102917278	102917285	0.027680194	0.0211945116	-2.62549884e-07	0.0016698	0.0025116	0.0028014	1	0	1	-360	360;
	102917285	102917292	2.62549884e-05	2.62549884e-05	-2.62549884e-07	6	8	10	1	0	1	-360	360;
	102917537	102917551	0.0100425331	0.00674543163	-2.62549884e-07	0.001656	0.002484	0.0027738	1	0	1	-360	360;
	102917551	102917558	0.0116833281	0.0051385914	-2.62549884e-07	0.0012282	0.0018492	0.0020562	1	0	1	-360	360;
	102917929	102917936	0.0438316898	0.0192781666	-2.62549884e-07	0.0012282	0.0018492	0.0020562	1	0	1	-360	360;
	102917964	102917978	0.333816665	0.146820104	-2.62549884e-07	0.0012282	0.0018492	0.0020562	1	0	1	-360	360;
	102918069	102918083	0.0730571456	0.0817144944	-2.62549884e-07	0.0006624	0.0013662	0.0015318	1	0	1	-360	360;
	102918069	102918076	0.178980911	0.200190338	-2.62549884e-07	0.0006624	0.0013662	0.0015318	1	0	1	-360	360;
	102918153	102918160	0.090286707	0.100985777	-2.62549884e-07	0.0006624	0.0013662	0.0015318	1	0	1	-360	360;
	102918174	102918181	0.136830624	0.0601811969	-2.62549884e-07	0.0012282	0.0018492	0.0020562	1	0	1	-360	360;
	102918188	102918195	0.136688075	0.0601185007	-2.62549884e-07	0.0012282	0.0018492	0.0020562	1	0	1	-360	360;
	102917453	102918405	2.62549884e-05	2.62549884e-05	-2.62549884e-07	6	8	10	1	0	1	-360	360;
	102918601	102918608	0.0549157262	0.0167188696	-2.62549884e-07	0.0009246	0.00138	0.0015456	1	0	1	-360	360;
	102918608	102918622	0.0282790224	0.0124377524	-2.62549884e-07	0.0012282	0.0018492	0.0020562	1	0	1	-360	360;
	102918629	102918636	0.113770159	0.0346368625	-2.62549884e-07	0.0009246	0.00138	0.0015456	1	0	1	-360	360;
	102918986	102918993	0.372300739	0.113345447	-2.62549884e-07	0.0009246	0.00138	0.0015456	1	0	1	-360	360;
	102918937	102918944	0.0677771972	0.0758088665	-2.62549884e-07	0.0006624	0.0013662	0.0015318	1	0	1	-360	360;
	102919007	102919014	0.2291836	0.0697740155	-2.62549884e-07	0.0009246	0.00138	0.0015456	1	0	1	-360	360;
	102919014	102919021	0.0189250914	0.0211677347	-2.62549884e-07	0.0006624	0.0013662	0.0015318	1	0	1	-360	360;
	102919070	102919084	0.48424076	0.147425131	-2.62549884e-07	0.0009246	0.00138	0.0015456	1	0	1	-360	360;
	102919210	102919224	0.339396073	0.103327755	-2.62549884e-07	0.0009246	0.00138	0.0015456	1	0	1	-360	360;
	102919238	102919245	0.0372899601	0.0164009662	-2.62549884e-07	0.0012282	0.0018492	0.0020562	1	0	1	-360	360;
	102918881	102919189	2.62549884e-05	2.62549884e-05	-2.62549884e-07	6	8	10	1	0	1	-360	360;
	102919630	102919637	0.108654061	0.0330792872	-2.62549884e-07	0.0009246	0.00138	0.0015456	1	0	1	-360	360;
	102918636	102919651	2.62549884e-05	2.62549884e-05	-2.62549884e-07	6	8	10	1	0	1	-360	360;
	102920015	102920022	0.057758045	0.017584202	-2.62549884e-07	0.0009246	0.00138	0.0015456	1	0	1	-360	360;
	102920050	102920057	0.702249259	0.213796932	-2.62549884e-07	0.0009246	0.00138	0.0015456	1	0	1	-360	360;
	102920106	102920113	0.0574556339	0.0174921342	-2.62549884e-07	0.0009246	0.00138	0.0015456	1	0	1	-360	360;
	102920449	102920456	0.0293911262	0.0129268807	-2.62549884e-07	0.0012282	0.0018492	0.0020562	1	0	1	-360	360;
	102920680	102920694	0.413935627	0.126021019	-2.62549884e-07	0.0009246	0.00138	0.0015456	1	0	1	-360	360;
	102916158	102916165	0.0219628981	0.0417032297	-2.62549884e-07	0.003519	0.0052716	0.005865	1	0	1	-360	360;
	102916165	102916172	0.00329077116	0.00624852809	-2.62549884e-07	0.003519	0.0052716	0.005865	1	0	1	-360	360;
	102916235	102916242	0.0758366181	0.105314407	-2.62549884e-07	0.002622	0.0039468	0.0043884	1	0	1	-360	360;
	102916291	102916298	0.0443112986	0.0615351561	-2.62549884e-07	0.002622	0.0039468	0.0043884	1	0	1	-360	360;
	102916312	102916319	2.62549884e-05	2.62549884e-05	-2.62549884e-07	6	8	10	1	0	1	-360	360;
	102916354	102916361	0.0136819996	0.01900021	-2.62549884e-07	0.002622	0.0039468	0.0043884	1	0	1	-360	360;
	102916375	102916382	2.62549884e-05	2.62549884e-05	-2.62549884e-07	6	8	10	1	0	1	-360	360;
	102916445	102916452	0.0672467282	0.0204729931	-2.62549884e-07	0.0009246	0.00138	0.0015456	1	0	1	-360	360;
	102916438	102916480	2.62549884e-05	2.62549884e-05	-2.62549884e-07	6	8	10	1	0	1	-360	360;
	102916977	102916984	0.133649972	0.0406891907	-2.62549884e-07	0.0009246	0.00138	0.0015456	1	0	1	-360	360;
	102916662	102917047	2.62549884e-05	2.62549884e-05	-2.62549884e-07	6	8	10	1	0	1	-360	360;
	102916557	102917103	2.62549884e-05	2.62549884e-05	-2.62549884e-07	6	8	10	1	0	1	-360	360;
	102917138	102917145	0.0270294721	0.028573075	-2.62549884e-07	0.0037812	0.005658	0.0062928	1	0	1	-360	360;
	102917292	102917299	0.162406661	0.124353531	-2.62549884e-07	0.0016698	0.0025116	0.0028014	1	0	1	-360	360;
	102917334	102917341	0.0163154232	0.0124925941	-2.62549884e-07	0.0016698	0.0025116	0.0028014	1	0	1	-360	360;
	102917768	102917894	2.62549884e-05	2.62549884e-05	-2.62549884e-07	6	8	10	1	0	1	-360	360;
	102918041	102918048	0.0413036699	0.0461981984	-2.62549884e-07	0.0006624	0.0013662	0.0015318	1	0	1	-360	360;
	102918167	102918174	0.0604688932	0.0265955842	-2.62549884e-07	0.0012282	0.0018492	0.0020562	1	0	1	-360	360;
	102918202	102918216	2.62549884e-05	2.62549884e-05	-2.62549884e-07	6	8	10	1	0	1	-360	360;
	102918237	102918244	0.113481915	0.0499119076	-2.62549884e-07	0.0012282	0.0018492	0.0020562	1	0	1	-360	360;
	102918412	102918419	0.079380844	0.0241671753	-2.62549884e-07	0.0009246	0.00138	0.0015456	1	0	1	-360	360;
	102918678	102918685	0.111233196	0.0338644944	-2.62549884e-07	0.0009246	0.00138	0.0015456	1	0	1	-360	360;
	102918741	102918755	0.0129150914	0.00393194707	-2.62549884e-07	0.0009246	0.00138	0.0015456	1	0	1	-360	360;
	102918776	102918790	0.301629238	0.0918297955	-2.62549884e-07	0.0009246	0.00138	0.0015456	1	0	1	-360	360;
	102918818	102918832	0.320429203	0.0975533683	-2.62549884e-07	0.0009246	0.00138	0.0015456	1	0	1	-360	360;
	102918846	102918853	0.125364381	0.0381666762	-2.62549884e-07	0.0009246	0.00138	0.0015456	1	0	1	-360	360;
	102918930	102918951	0.0639988841	0.0194842001	-2.62549884e-07	0.0009246	0.00138	0.0015456	1	0	1	-360	360;
	102919105	102919112	0.0319628229	0.014057971	-2.62549884e-07	0.0012282	0.0018492	0.0020562	1	0	1	-360	360;
	102919056	102919070	0.549252007	0.167217541	-2.62549884e-07	0.0009246	0.00138	0.0015456	1	0	1	-360	360;
	102919196	102919203	0.0927331973	0.028232245	-2.62549884e-07	0.0009246	0.00138	0.0015456	1	0	1	-360	360;
	102919210	102919217	0.103678866	0.0315646095	-2.62549884e-07	0.0009246	0.00138	0.0015456	1	0	1	-360	360;
	102919266	102919280	0.0475161563	0.0208986781	-2.62549884e-07	0.0012282	0.0018492	0.0020562	1	0	1	-360	360;
	102919322	102919350	2.62549884e-05	2.62549884e-05	-2.62549884e-07	6	8	10	1	0	1	-360	360;
	102919448	102919455	0.18816378	0.0572856981	-2.62549884e-07	0.0009246	0.00138	0.0015456	1	0	1	-360	360;
	102919679	102919686	0.194640923	0.0592576377	-2.62549884e-07	0.0009246	0.00138	0.0015456	1	0	1	-360	360;
	102918615	102919679	2.62549884e-05	2.62549884e-05	-2.62549884e-07	6	8	10	1	0	1	-360	360;
	102919938	102920050	2.62549884e-05	2.62549884e-05	-2.62549884e-07	6	8	10	1	0	1	-360	360;
	102920085	102920092	0.0347082662	0.0105667906	-2.62549884e-07	0.0009246	0.00138	0.0015456	1	0	1	-360	360;
	102916200	102916235	0.0144685538	0.0200924989	-2.62549884e-07	0.002622	0.0039468	0.0043884	1	0	1	-360	360;
	102916305	102916312	0.0113518177	0.0143502092	-2.62549884e-07	0.0025944	0.0038916	0.0043332	1	0	1	-360	360;
	102916403	102916410	2.62549884e-05	2.62549884e-05	-2.62549884e-07	6	8	10	1	0	1	-360	360;
	102916998	102917012	0.0427401115	0.0187980658	-2.62549884e-07	0.0012282	0.0018492	0.0020562	1	0	1	-360	360;
	102917075	102917082	0.479368258	0.145941718	-2.62549884e-07	0.0009246	0.00138	0.0015456	1	0	1	-360	360;
	102917271	102917278	2.62549884e-05	2.62549884e-05	-2.62549884e-07	6	8	10	1	0	1	-360	360;
	102917299	102917313	0.186357492	0.142692498	-2.62549884e-07	0.0016698	0.0025116	0.0028014	1	0	1	-360	360;
	102917313	102917320	0.11107233	0.085047229	-2.62549884e-07	0.0016698	0.0025116	0.0028014	1	0	1	-360	360;
	102917327	102917334	0.279951389	0.214356625	-2.62549884e-07	0.0016698	0.0025116	0.0028014	1	0	1	-360	360;
	102917523	102917530	2.62549884e-05	2.62549884e-05	-2.62549884e-07	6	8	10	1	0	1	-360	360;
	102917880	102917887	0.204087511	0.0621336132	-2.62549884e-07	0.0009246	0.00138	0.0015456	1	0	1	-360	360;
	102917782	102917929	2.62549884e-05	2.62549884e-05	-2.62549884e-07	6	8	10	1	0	1	-360	360;
	102918048	102918055	0.0598584129	0.066951698	-2.62549884e-07	0.0006624	0.0013662	0.0015318	1	0	1	-360	360;
	102918636	102918643	0.889610625	0.270838339	-2.62549884e-07	0.0009246	0.00138	0.0015456	1	0	1	-360	360;
	102918657	102918671	0.0909003909	0.0276742545	-2.62549884e-07	0.0009246	0.00138	0.0015456	1	0	1	-360	360;
	102918699	102918713	0.0983584084	0.0299448176	-2.62549884e-07	0.0009246	0.00138	0.0015456	1	0	1	-360	360;
	102918748	102918762	0.0710003876	0.0216157794	-2.62549884e-07	0.0009246	0.00138	0.0015456	1	0	1	-360	360;
	102918783	102918804	0.458716605	0.139654406	-2.62549884e-07	0.0009246	0.00138	0.0015456	1	0	1	-360	360;
	102918783	102918797	0.2454245	0.0747184913	-2.62549884e-07	0.0009246	0.00138	0.0015456	1	0	1	-360	360;
	102918713	102918720	0.198452106	0.0604179369	-2.62549884e-07	0.0009246	0.00138	0.0015456	1	0	1	-360	360;
	102918909	102918916	0.0465660249	0.014176837	-2.62549884e-07	0.0009246	0.00138	0.0015456	1	0	1	-360	360;
	102918979	102918986	0.457055122	0.139148574	-2.62549884e-07	0.0009246	0.00138	0.0015456	1	0	1	-360	360;
	102919042	102919049	0.254892889	0.077601104	-2.62549884e-07	0.0009246	0.00138	0.0015456	1	0	1	-360	360;
	102919259	102919266	0.0372899601	0.0164009662	-2.62549884e-07	0.0012282	0.0018492	0.0020562	1	0	1	-360	360;
	102918874	102919252	2.62549884e-05	2.62549884e-05	-2.62549884e-07	6	8	10	1	0	1	-360	360;
	102919357	102919364	0.0544548124	0.0165785463	-2.62549884e-07	0.0009246	0.00138	0.0015456	1	0	1	-360	360;
	102919420	102919434	0.377629798	0.114967857	-2.62549884e-07	0.0009246	0.00138	0.0015456	1	0	1	-360	360;
	102918741	102919378	2.62549884e-05	2.62549884e-05	-2.62549884e-07	6	8	10	1	0	1	-360	360;
	102918643	102919623	2.62549884e-05	2.62549884e-05	-2.62549884e-07	6	8	10	1	0	1	-360	360;
	102920022	102920029	0.119869905	0.0364939054	-2.62549884e-07	0.0009246	0.00138	0.0015456	1	0	1	-360	360;
	102920596	102920603	0.275791461	0.0839635894	-2.62549884e-07	0.0009246	0.00138	0.0015456	1	0	1	-360	360;
	102920624	102920631	0.308092527	0.0937975174	-2.62549884e-07	0.0009246	0.00138	0.0015456	1	0	1	-360	360;
	102920659	102920666	0.156200849	0.0475547136	-2.62549884e-07	0.0009246	0.00138	0.0015456	1	0	1	-360	360;
	102919868	102920638	2.62549884e-05	2.62549884e-05	-2.62549884e-07	6	8	10	1	0	1	-360	360;
	102920764	102920771	0.132620097	0.0403756494	-2.62549884e-07	0.0009246	0.00138	0.0015456	1	0	1	-360	360;
	102920827	102920841	0.0319139571	0.0140364787	-2.62549884e-07	0.0012282	0.0018492	0.0020562	1	0	1	-360	360;
	102920890	102920897	0.360532318	0.109762599	-2.62549884e-07	0.0009246	0.00138	0.0015456	1	0	1	-360	360;
	102920897	102920904	0.0413372641	0.012584962	-2.62549884e-07	0.0009246	0.00138	0.0015456	1	0	1	-360	360;
	102916165	102916179	0.0205634871	0.0259949861	-2.62549884e-07	0.0025944	0.0038916	0.0043332	1	0	1	-360	360;
	102916186	102916193	0.0109982502	0.0116263398	-2.62549884e-07	0.0037812	0.005658	0.0062928	1	0	1	-360	360;
	102916179	102916186	2.62549884e-05	2.62549884e-05	-2.62549884e-07	6	8	10	1	0	1	-360	360;
	102916270	102916277	0.0180165028	0.0227752588	-2.62549884e-07	0.0025944	0.0038916	0.0043332	1	0	1	-360	360;
	102916277	102916284	0.01021374	0.0129115275	-2.62549884e-07	0.0025944	0.0038916	0.0043332	1	0	1	-360	360;
	102916298	102916305	0.0162248556	0.0225314775	-2.62549884e-07	0.002622	0.0039468	0.0043884	1	0	1	-360	360;
	102916361	102916368	0.00168025719	0.00212406884	-2.62549884e-07	0.0025944	0.0038916	0.0043332	1	0	1	-360	360;
	102916382	102916389	0.00872059869	0.0121103064	-2.62549884e-07	0.002622	0.0039468	0.0043884	1	0	1	-360	360;
	102916417	102916431	0.0436341149	0.0605947502	-2.62549884e-07	0.002622	0.0039468	0.0043884	1	0	1	-360	360;
	102916956	102916963	0.298092635	0.333416926	-2.62549884e-07	0.0006624	0.0013662	0.0015318	1	0	1	-360	360;
	102916970	102916977	0.0304411631	0.00926768837	-2.62549884e-07	0.0009246	0.00138	0.0015456	1	0	1	-360	360;
	102916984	102916991	0.0432992817	0.0131822903	-2.62549884e-07	0.0009246	0.00138	0.0015456	1	0	1	-360	360;
	102916991	102916998	0.0479697145	0.0146041846	-2.62549884e-07	0.0009246	0.00138	0.0015456	1	0	1	-360	360;
	102917117	102917124	0.00840709539	0.00888720898	-2.62549884e-07	0.0037812	0.005658	0.0062928	1	0	1	-360	360;
	102917145	102917152	0.0801586198	0.111316376	-2.62549884e-07	0.002622	0.0039468	0.0043884	1	0	1	-360	360;
	102917180	102917215	2.62549884e-05	2.62549884e-05	-2.62549884e-07	6	8	10	1	0	1	-360	360;
	102917341	102917348	0.0555432884	0.0425290687	-2.62549884e-07	0.0016698	0.0025116	0.0028014	1	0	1	-360	360;
	102917502	102917509	2.62549884e-05	2.62549884e-05	-2.62549884e-07	6	8	10	1	0	1	-360	360;
	102917530	102917537	0.00655644665	0.00502022077	-2.62549884e-07	0.0016698	0.0025116	0.0028014	1	0	1	-360	360;
	102917537	102917544	0.00703638653	0.00538770704	-2.62549884e-07	0.0016698	0.0025116	0.0028014	1	0	1	-360	360;
	102917894	102917901	0.0361774994	0.0159116808	-2.62549884e-07	0.0012282	0.0018492	0.0020562	1	0	1	-360	360;
	102917908	102917915	0.230202424	0.257481654	-2.62549884e-07	0.0006624	0.0013662	0.0015318	1	0	1	-360	360;
	102917635	102918041	2.62549884e-05	2.62549884e-05	-2.62549884e-07	6	8	10	1	0	1	-360	360;
	102917607	102918111	2.62549884e-05	2.62549884e-05	-2.62549884e-07	6	8	10	1	0	1	-360	360;
	102918146	102918167	2.62549884e-05	2.62549884e-05	-2.62549884e-07	6	8	10	1	0	1	-360	360;
	102918216	102918223	0.019536876	0.00859275906	-2.62549884e-07	0.0012282	0.0018492	0.0020562	1	0	1	-360	360;
	102918244	102918258	0.172492504	0.0758660969	-2.62549884e-07	0.0012282	0.0018492	0.0020562	1	0	1	-360	360;
	102918265	102918272	0.124190138	0.1389068	-2.62549884e-07	0.0006624	0.0013662	0.0015318	1	0	1	-360	360;
	102918643	102918650	0.233108557	0.0709689525	-2.62549884e-07	0.0009246	0.00138	0.0015456	1	0	1	-360	360;
	102918650	102918664	0.143323487	0.0436342531	-2.62549884e-07	0.0009246	0.00138	0.0015456	1	0	1	-360	360;
	102918685	102918692	0.0406603295	0.0454786214	-2.62549884e-07	0.0006624	0.0013662	0.0015318	1	0	1	-360	360;
	102918692	102918699	0.299878945	0.335414916	-2.62549884e-07	0.0006624	0.0013662	0.0015318	1	0	1	-360	360;
	102918804	102918811	0.499277457	0.152002992	-2.62549884e-07	0.0009246	0.00138	0.0015456	1	0	1	-360	360;
	102918846	102918860	0.303505336	0.0924009658	-2.62549884e-07	0.0009246	0.00138	0.0015456	1	0	1	-360	360;
	102918881	102918888	0.203100884	0.0618332387	-2.62549884e-07	0.0009246	0.00138	0.0015456	1	0	1	-360	360;
	102919049	102919098	0.079380844	0.0241671753	-2.62549884e-07	0.0009246	0.00138	0.0015456	1	0	1	-360	360;
	102919189	102919196	0.244404517	0.0744079619	-2.62549884e-07	0.0009246	0.00138	0.0015456	1	0	1	-360	360;
	102919224	102919231	0.341627354	0.104007059	-2.62549884e-07	0.0009246	0.00138	0.0015456	1	0	1	-360	360;
	102916298	2809710	0.0205941372	0.0285991043	-2.62549884e-07	0.002622	0.0039468	0.0043884	1	0	1	-360	360;
	102916487	2809738	0.00415295821	0.00524989221	-2.62549884e-07	0.0025944	0.0038916	0.0043332	1	0	1	-360	360;
	102916998	102917005	0.486990478	0.148262272	-2.62549884e-07	0.0009246	0.00138	0.0015456	1	0	1	-360	360;
	102917026	102917040	0.247505999	0.0753521954	-2.62549884e-07	0.0009246	0.00138	0.0015456	1	0	1	-360	360;
	102916984	102917019	2.62549884e-05	2.62549884e-05	-2.62549884e-07	6	8	10	1	0	1	-360	360;
	102917089	102917096	0.0339599976	0.0165342389	-2.62549884e-07	0.001242	0.001863	0.0020838	1	0	1	-360	360;
	102916599	102917089	2.62549884e-05	2.62549884e-05	-2.62549884e-07	6	8	10	1	0	1	-360	360;
	102917103	102917110	0.0208086889	0.0263049538	-2.62549884e-07	0.0025944	0.0038916	0.0043332	1	0	1	-360	360;
	102917222	102917229	0.0355001938	0.0108078897	-2.62549884e-07	0.0009246	0.00138	0.0015456	1	0	1	-360	360;
	102917264	102917271	0.0307657076	0.0235570656	-2.62549884e-07	0.0016698	0.0025116	0.0028014	1	0	1	-360	360;
...
];

%%-----  OPF Data  -----%%
%% generator cost data
%	1	startup	shutdown	n	x1	y1	...	xn	yn
%	2	startup	shutdown	n	c(n-1)	...	c0
mpc.gencost = [
	2	0	0	3	0.25	20	0;
];
